LAMMPS (12 Dec 2018)
units           metal                 # Angstrom, eV, ps, bar
boundary        p p p                 # Periodic boundaries in all dimensions.
atom_style      atomic                # Pair potentials.

#------------------------------------------------------------------
#  Define simulation box.
#------------------------------------------------------------------
#read_data     input

#lattice custom  3.74 a1 1 0 0 a2 0 1 0 a3 0 0 1
lattice fcc 4.04
Lattice spacing in x,y,z = 4.04 4.04 4.04
#lattice custom  3.74 a1 1.0 0.0 0.0 a2 0.0 1.0 0.0 a3 0.0 0.0 1.0 #		basis 0.0 0.0 0.0 basis 0.5 0.5 0.5
region my_box block 0 1 0 1 0 1
#region          my_box block 0 4 0 5 0 5
create_box      2 my_box
Created orthogonal box = (0 0 0) to (4.04 4.04 4.04)
create_atoms    1  box
Created 4 atoms
  Time spent = 0.000135899 secs
#create_atoms    2 region my_box basis 1 1 basis 2 2

#create_atoms    1 random 16000 341341 my_box
#create_atoms    2 random 16000 127569 my_box
#group cus type 2
#set group all type/fraction 1 0.990503 341341

#------------------------------------------------------------------
#  Define interatomic potential.
#------------------------------------------------------------------
pair_style     eam/fs
pair_coeff      * * Al_Sm.eam.fs Al Sm

thermo 500
thermo_style    custom step temp press etotal pe enthalpy
thermo_modify   flush yes
#pair_coeff      *3 4 lj/cut 1 0.5 1.2

neigh_modify    every 1 delay 0 check no

#------------------------------------------------------------------
#  How to write the trajectory.
#------------------------------------------------------------------
dump            dump_name all custom 500 uwtraj.lammpstrj id type xu yu zu
dump_modify     dump_name sort id

#-----------------------------------------------------------------
#  write continuation files
#-----------------------------------------------------------------
restart 1000 traj.restart1.mpiio traj.restart2.mpiio

#------------------------------------------------------------------
#  How to write thermodynamic information.
#------------------------------------------------------------------
#run 		500

#------------------------------------------------------------------
#  Define statistical ensemble.
#------------------------------------------------------------------
fix	1 all nve
#fix		fix_name all  flow temp/rescale 1 0 300 0.02 10
#fix   1 all nve temp/rescale 100 1.0 1.1 0.02 0.5

#fix_modify  all  temp mytemp
#fix             fix_name all npt  300.0 400.0 1.0
#fix             fix_name all box/relax  iso 0.0
#fix             fix_name all nvt temp 300 300 0.1
#fix             fix_name all npt temp 300 300 0.1 aniso 0 0 1 couple xy
#fix	     1 all nvt 200.0 300.0 1.0
#run	     1000 start 0 stop 10000

#------------------------------------------------------------------
#  Initial velocities and timestep (ps).
#------------------------------------------------------------------
timestep 0.001
velocity        all create 300 1002 mom yes rot yes dist gaussian
run 5000
  update every 1 steps, delay 0 steps, check no
Step Temp Press TotEng PotEng Enthalpy
0          300    2443.0079   -15.504253   -15.620587   -15.403709
Averages over the last 6 of 11 rows, steps 2500 to 5000:
Temp Press TotEng PotEng Enthalpy
174.942 6774.56 -15.5042 -15.5721 -15.2254
Loop time of 0.173991 on 1 procs for 5000 steps with 4 atoms

unfix 1

fix             md all npt temp 300 300 0.1 iso 0 0 1
run 5000
Step Temp Press TotEng PotEng Enthalpy
5000    232.62628    4504.0769   -15.504239   -15.594447   -15.318869
Averages over the last 6 of 11 rows, steps 7500 to 10000:
Temp Press TotEng PotEng Enthalpy
351.459 -4865.92 -15.3124 -15.4487 -15.5526
Loop time of 0.214062 on 1 procs for 5000 steps with 4 atoms

unfix md

fix             md all npt temp 300 2000 0.1 iso 0 0 1
run 30000
Step Temp Press TotEng PotEng Enthalpy
10000    596.87044    5007.5364   -15.342459   -15.573914   -15.135392
Averages over the last 31 of 61 rows, steps 25000 to 40000:
Temp Press TotEng PotEng Enthalpy
1609.37 17551.1 -14.2784 -14.9025 -13.6812
Loop time of 1.3135 on 1 procs for 30000 steps with 4 atoms

unfix md

fix             md all npt temp 2000 2000 0.1 iso 0 0 1
run 30000
Step Temp Press TotEng PotEng Enthalpy
40000    1856.9038   -33304.755   -14.357998   -15.078069   -15.905039
Averages over the last 31 of 61 rows, steps 55000 to 70000:
Temp Press TotEng PotEng Enthalpy
2324.16 24286.1 -13.6579 -14.5592 -12.6463
Loop time of 1.35866 on 1 procs for 30000 steps with 4 atoms

unfix md

fix             md all npt temp 2000 1350 0.1 iso 0 0 1
run 5000
Step Temp Press TotEng PotEng Enthalpy
70000    2149.0705    8384.9413   -13.892689   -14.726056   -13.504727
Averages over the last 6 of 11 rows, steps 72500 to 75000:
Temp Press TotEng PotEng Enthalpy
1437.8 -46891.4 -14.3415 -14.8991 -16.6015
Loop time of 0.229209 on 1 procs for 5000 steps with 4 atoms

unfix md

fix             md all npt temp 1350 1350 0.1 iso 0 0 1
run 5000
Step Temp Press TotEng PotEng Enthalpy
75000    1719.8774   -49145.058   -14.704427   -15.371362   -16.928531
Averages over the last 6 of 11 rows, steps 77500 to 80000:
Temp Press TotEng PotEng Enthalpy
1127.34 431.039 -14.6045 -15.0417 -14.6514
Loop time of 0.222341 on 1 procs for 5000 steps with 4 atoms

unfix md

variable imax equal 2
variable i loop 2
label start_of_loop_1

variable tin equal 1400-1*50
variable tfi equal 1350-1*50

fix             nnn all npt temp 1350 1300 0.1 iso 0 0 1
run 5000
Step Temp Press TotEng PotEng Enthalpy
80000    1213.4824     56139.69   -14.538379   -15.008944   -12.196951
Averages over the last 6 of 11 rows, steps 82500 to 85000:
Temp Press TotEng PotEng Enthalpy
1317.48 -6706.04 -14.3944 -14.9053 -14.7571
Loop time of 0.214199 on 1 procs for 5000 steps with 4 atoms

unfix           nnn

fix             md all npt temp 1300 1300 0.1 iso 0 0 1
run 45000
Step Temp Press TotEng PotEng Enthalpy
85000    795.88646    -46982.73   -14.778698   -15.087327   -16.973384
Averages over the last 46 of 91 rows, steps 107500 to 130000:
Temp Press TotEng PotEng Enthalpy
1226.3 -2706.59 -14.4655 -14.941 -14.7298
Loop time of 1.94966 on 1 procs for 45000 steps with 4 atoms

unfix md

next i
jump dep.in start_of_loop_1

variable tin equal 1400-2*50
variable tfi equal 1350-2*50

fix             nnn all npt temp 1300 1250 0.1 iso 0 0 1
run 5000
Step Temp Press TotEng PotEng Enthalpy
130000    694.37217    -47314.47    -15.06709   -15.336354   -17.206683
Averages over the last 6 of 11 rows, steps 132500 to 135000:
Temp Press TotEng PotEng Enthalpy
1076.86 -13150.2 -14.6051 -15.0227 -15.3655
Loop time of 0.237703 on 1 procs for 5000 steps with 4 atoms

unfix           nnn

fix             md all npt temp 1250 1250 0.1 iso 0 0 1
run 45000
Step Temp Press TotEng PotEng Enthalpy
135000    1755.2462    23081.833    -14.55272    -15.23337    -13.57507
Averages over the last 46 of 91 rows, steps 157500 to 180000:
Temp Press TotEng PotEng Enthalpy
1250.65 6925.88 -14.5251 -15.0101 -14.3286
Loop time of 2.06291 on 1 procs for 45000 steps with 4 atoms

unfix md

next i
jump dep.in start_of_loop_1
